data/Network1_Feeder1_Impedance_sections_Normal/Master.dss
! Original network data and time series from ENWL - Low Voltage Network Solutions project (in OpenDSS format)
!   https://www.enwl.co.uk/go-net-zero/innovation/smaller-projects/low-carbon-networks-fund/low-voltage-network-solutions/

! Adapted with length-normalized four-wire impedance data from: 
!   Urquhart, Andrew J., and Murray Thomson. 2019. “Cable Impedance Data”. figshare. https://hdl.handle.net/2134/15544.
!   Creative Commons Attribution-NonCommercial 3.0 Unported License.

! Adaptation process described in  
!   'Distribution Network Modeling: From Simulation Towards Optimization, Sander Claeys, Phd Dissertation, KU Leuven, Belgium 2021

! Impedance transformations described in 
!   'Computational Analysis of Impedance Transformations for Four-Wire Power Networks with Sparse Neutral Grounding', Frederik Geth, Rahmat Heidarihaei, Arpan Koirala, submitted to ACM E-energy 2022.

Clear
Set DefaultBaseFreq=50
New Circuit.ENWL_Network_14_Feeder_1_4wire BasekV=0.416 pu=1.00 ISC3=100000 ISC1=100000
New Reactor.Grounding phases=1 bus1=sourcebus.4 bus2=sourcebus.0 R=0.0 X=1E-10
New Reactor.Grounding1 phases=1 bus1=800.4 bus2=800.0 R=0.1 X=0
New Reactor.Grounding2 phases=1 bus1=1300.4 bus2=1300.0 R=0.1 X=0
New Reactor.Grounding3 phases=1 bus1=1800.4 bus2=1800.0 R=0.1 X=0
New Reactor.Grounding4 phases=1 bus1=2000.4 bus2=2000.0 R=0.1 X=0
New Reactor.Grounding5 phases=1 bus1=2100.4 bus2=2100.0 R=0.1 X=0
New Reactor.Grounding6 phases=1 bus1=2347.4 bus2=2347.0 R=0.1 X=0


Redirect LineCode.txt
Redirect Lines.txt
Redirect Loads.txt

New Energymeter.substation Element=Line.LINE1 1

Set mode=Snap
Solve
Closedi